input/IEEE_73_bus_v30_LODF.raw
 0, 100.0/RAWD VER 30 EXPORT BY PSAT


     1,'Abel        ',138.00,2,.000,.000,  11,  11,1.22363,40.5785,   1,/* [                                ] */
     2,'Adams       ',138.00,2,.000,.000,  11,  12,1.22911,40.4758,   1,/* [                                ] */
     3,'Adler       ',138.00,1,.000,.000,  11,  11,1.05785,42.2022,   1,/* [                                ] */
     4,'Agricola    ',138.00,1,.000,.000,  11,  11,1.14880,39.2289,   1,/* [                                ] */
     5,'Alken       ',138.00,1,.000,.000,  11,  11,1.21407,39.0166,   1,/* [                                ] */
     6,'Alber       ',138.00,1,.000,100.000,  11,  12,1.34352,36.2606,   1,/* [                                ] */
     7,'Alder       ',138.00,2,.000,.000,  11,  12,1.24948,41.3344,   1,/* [                                ] */
     8,'Alger       ',138.00,1,.000,.000,  11,  12,1.19282,38.7333,   1,/* [                                ] */
     9,'Ali         ',138.00,1,.000,.000,  11,  13,1.11136,41.4211,   1,/* [                                ] */
     10,'Allen       ',138.00,1,.000,.000,  11,  13,1.22574,39.7147,   1,/* [                                ] */
     11,'Anna        ',230.00,1,.000,.000,  11,  13,1.10453,45.2352,   1,/* [                                ] */
     12,'Archer      ',230.00,1,.000,.000,  11,  13,1.10823,46.6902,   1,/* [                                ] */
     13,'Arne        ',230.00,2,.000,.000,  12,  14,1.11849,49.2257,   1,/* [                                ] */
     14,'Arnold      ',230.00,2,.000,.000,  12,  16,1.04034,47.1217,   1,/* [                                ] */
     15,'Arthur      ',230.00,2,.000,.000,  12,  16,.97366,56.2255,   1,/* [                                ] */
     16,'Asser       ',230.00,2,.000,.000,  12,  16,.98077,56.3391,   1,/* [                                ] */
     17,'Aston       ',230.00,1,.000,.000,  12,  17,.97635,61.6033,   1,/* [                                ] */
     18,'Astor       ',230.00,2,.000,.000,  12,  17,.97628,63.2650,   1,/* [                                ] */
     19,'Attar       ',230.00,1,.000,.000,  12,  15,.97658,54.9674,   1,/* [                                ] */
     20,'Attila      ',230.00,1,.000,.000,  12,  15,.98354,55.8973,   1,/* [                                ] */
     21,'Attlee      ',230.00,2,.000,.000,  12,  17,.97981,64.2428,   1,/* [                                ] */
     22,'Aubrey      ',230.00,2,.000,.000,  12,  17,.98370,70.6242,   1,/* [                                ] */
     23,'Austen      ',230.00,3,.000,.000,  12,  15,1.00000,58.5065,   1,/* [                                ] */
     24,'Avery       ',230.00,1,.000,.000,  12,  16,.99399,50.4423,   1,/* [                                ] */
     25,'Bach        ',138.00,2,.000,.000,  21,  21,1.54522,39.6963,   1,/* [                                ] */
     26,'Bacon       ',138.00,2,.000,.000,  21,  22,1.55308,39.6018,   1,/* [                                ] */
     27,'Baffin      ',138.00,1,.000,.000,  21,  21,1.32296,41.5680,   1,/* [                                ] */
     28,'Bailey      ',138.00,1,.000,.000,  21,  21,1.45634,39.0566,   1,/* [                                ] */
     29,'Baln        ',138.00,1,.000,.000,  21,  21,1.53974,38.7781,   1,/* [                                ] */
     30,'Bajer       ',138.00,1,.000,100.000,  21,  22,1.71089,36.5021,   1,/* [                                ] */
     31,'Baker       ',138.00,2,.000,.000,  21,  22,1.48874,40.4061,   1,/* [                                ] */
     32,'Balch       ',138.00,1,.000,.000,  21,  22,1.46538,38.6831,   1,/* [                                ] */
     33,'Balzac      ',138.00,1,.000,.000,  21,  23,1.39747,40.6625,   1,/* [                                ] */
     34,'Banks       ',138.00,1,.000,.000,  21,  23,1.54968,39.2841,   1,/* [                                ] */
     35,'Bardeen     ',230.00,1,.000,.000,  21,  23,1.38430,43.1034,   1,/* [                                ] */
     36,'Barkla      ',230.00,1,.000,.000,  21,  23,1.39563,43.9909,   1,/* [                                ] */
     37,'Barlow      ',230.00,2,.000,.000,  22,  24,1.37774,45.4178,   1,/* [                                ] */
     38,'Barry       ',230.00,2,.000,.000,  22,  26,1.30714,44.9391,   1,/* [                                ] */
     39,'Barton      ',230.00,2,.000,.000,  22,  26,1.20750,51.6999,   1,/* [                                ] */
     40,'Basov       ',230.00,2,.000,.000,  22,  26,1.21908,51.7968,   1,/* [                                ] */
     41,'Bates       ',230.00,1,.000,.000,  22,  27,1.19308,56.1391,   1,/* [                                ] */
     42,'Bayle       ',230.00,2,.000,.000,  22,  27,1.21219,57.2910,   1,/* [                                ] */
     43,'Bede        ',230.00,1,.000,.000,  22,  25,1.22647,50.6176,   1,/* [                                ] */
     44,'Beethoven   ',230.00,1,.000,.000,  22,  25,1.25628,51.2744,   1,/* [                                ] */
     45,'Behring     ',230.00,2,.000,.000,  22,  27,1.22934,58.8218,   1,/* [                                ] */
     46,'Bell        ',230.00,2,.000,.000,  22,  27,1.22311,62.5718,   1,/* [                                ] */
     47,'Bloch       ',230.00,2,.000,.000,  22,  25,1.27900,52.6004,   1,/* [                                ] */
     48,'Bordet      ',230.00,1,.000,.000,  22,  26,1.24344,47.4467,   1,/* [                                ] */
     49,'Cabell      ',138.00,2,.000,.000,  31,  31,.78287,22.2030,   1,/* [                                ] */
     50,'Cabot       ',138.00,2,.000,.000,  31,  32,.78401,22.0303,   1,/* [                                ] */
     51,'Caesar      ',138.00,1,.000,.000,  31,  31,.71920,24.2943,   1,/* [                                ] */
     52,'Caine       ',138.00,1,.000,.000,  31,  31,.72509,17.9506,   1,/* [                                ] */
     53,'Calvin      ',138.00,1,.000,.000,  31,  31,.76195,17.7742,   1,/* [                                ] */
     54,'Camus       ',138.00,1,.000,100.000,  31,  32,.82659,12.8283,   1,/* [                                ] */
     55,'Carew       ',138.00,2,.000,.000,  31,  32,.74914,22.8400,   1,/* [                                ] */
     56,'Carrel      ',138.00,1,.000,.000,  31,  32,.70800,15.7116,   1,/* [                                ] */
     57,'Carter      ',138.00,1,.000,.000,  31,  33,.72734,22.3249,   1,/* [                                ] */
     58,'Caruso      ',138.00,1,.000,.000,  31,  33,.77873,18.9225,   1,/* [                                ] */
     59,'Cary        ',230.00,1,.000,.000,  31,  33,.76251,31.0669,   1,/* [                                ] */
     60,'Caxton      ',230.00,1,.000,.000,  31,  33,.76538,34.0025,   1,/* [                                ] */
     61,'Cecil       ',230.00,2,.000,.000,  32,  34,.79543,37.7434,   1,/* [                                ] */
     62,'Chain       ',230.00,2,.000,.000,  32,  36,.77338,35.1240,   1,/* [                                ] */
     63,'Chase       ',230.00,2,.000,.000,  32,  36,.83645,50.6546,   1,/* [                                ] */
     64,'Chifa       ',230.00,2,.000,.000,  32,  36,.84652,50.3821,   1,/* [                                ] */
     65,'Chuhsi      ',230.00,1,.000,.000,  32,  37,.91970,56.6120,   1,/* [                                ] */
     66,'Clark       ',230.00,2,.000,.000,  32,  37,.96210,58.0568,   1,/* [                                ] */
     67,'Clay        ',230.00,1,.000,.000,  32,  35,.83664,48.3468,   1,/* [                                ] */
     68,'Clive       ',230.00,1,.000,.000,  32,  35,.84760,50.5282,   1,/* [                                ] */
     69,'Cobb        ',230.00,2,.000,.000,  32,  37,.93919,61.6684,   1,/* [                                ] */
     70,'Cole        ',230.00,2,.000,.000,  32,  37,.93248,67.9598,   1,/* [                                ] */
     71,'Comte       ',230.00,2,.000,.000,  32,  35,.86568,53.8351,   1,/* [                                ] */
     72,'Curie       ',230.00,1,.000,.000,  32,  36,.76484,41.7813,   1,/* [                                ] */
     73,'Curtiss     ',230.00,1,.000,.000,  32,  35,.87309,54.8704,   1,/* [                                ] */
0 / END OF BUS DATA, BEGIN LOAD DATA
1,'1 ',1,  11,  11,108.000,22.000,.000,.000,.000,.000,   1,/* [                                ] */
2,'1 ',1,  11,  12,97.000,20.000,.000,.000,.000,.000,   1,/* [                                ] */
3,'1 ',1,  11,  11,180.000,37.000,.000,.000,.000,.000,   1,/* [                                ] */
4,'1 ',1,  11,  11,74.000,15.000,.000,.000,.000,.000,   1,/* [                                ] */
5,'1 ',1,  11,  11,71.000,14.000,.000,.000,.000,.000,   1,/* [                                ] */
6,'1 ',1,  11,  12,136.000,28.000,.000,.000,.000,.000,   1,/* [                                ] */
7,'1 ',1,  11,  12,125.000,25.000,.000,.000,.000,.000,   1,/* [                                ] */
8,'1 ',1,  11,  12,171.000,35.000,.000,.000,.000,.000,   1,/* [                                ] */
9,'1 ',1,  11,  13,175.000,36.000,.000,.000,.000,.000,   1,/* [                                ] */
10,'1 ',1,  11,  13,195.000,40.000,.000,.000,.000,.000,   1,/* [                                ] */
13,'1 ',1,  12,  14,265.000,54.000,.000,.000,.000,.000,   1,/* [                                ] */
14,'1 ',1,  12,  16,194.000,39.000,.000,.000,.000,.000,   1,/* [                                ] */
15,'1 ',1,  12,  16,317.000,64.000,.000,.000,.000,.000,   1,/* [                                ] */
16,'1 ',1,  12,  16,100.000,20.000,.000,.000,.000,.000,   1,/* [                                ] */
18,'1 ',1,  12,  17,333.000,68.000,.000,.000,.000,.000,   1,/* [                                ] */
19,'1 ',1,  12,  15,181.000,37.000,.000,.000,.000,.000,   1,/* [                                ] */
20,'1 ',1,  12,  15,128.000,26.000,.000,.000,.000,.000,   1,/* [                                ] */
1,'1 ',1,  21,  21,108.000,22.000,.000,.000,.000,.000,   1,/* [                                ] */
2,'1 ',1,  21,  22,97.000,20.000,.000,.000,.000,.000,   1,/* [                                ] */
3,'1 ',1,  21,  21,180.000,37.000,.000,.000,.000,.000,   1,/* [                                ] */
24,'1 ',1,  21,  21,74.000,15.000,.000,.000,.000,.000,   1,/* [                                ] */
25,'1 ',1,  21,  21,71.000,14.000,.000,.000,.000,.000,   1,/* [                                ] */
26,'1 ',1,  21,  22,136.000,28.000,.000,.000,.000,.000,   1,/* [                                ] */
27,'1 ',1,  21,  22,125.000,25.000,.000,.000,.000,.000,   1,/* [                                ] */
28,'1 ',1,  21,  22,171.000,35.000,.000,.000,.000,.000,   1,/* [                                ] */
29,'1 ',1,  21,  23,175.000,36.000,.000,.000,.000,.000,   1,/* [                                ] */
20,'1 ',1,  21,  23,195.000,40.000,.000,.000,.000,.000,   1,/* [                                ] */
23,'1 ',1,  22,  24,265.000,54.000,.000,.000,.000,.000,   1,/* [                                ] */
24,'1 ',1,  22,  26,194.000,39.000,.000,.000,.000,.000,   1,/* [                                ] */
25,'1 ',1,  22,  26,317.000,64.000,.000,.000,.000,.000,   1,/* [                                ] */
26,'1 ',1,  22,  26,100.000,20.000,.000,.000,.000,.000,   1,/* [                                ] */
28,'1 ',1,  22,  27,333.000,68.000,.000,.000,.000,.000,   1,/* [                                ] */
29,'1 ',1,  22,  25,181.000,37.000,.000,.000,.000,.000,   1,/* [                                ] */
20,'1 ',1,  22,  25,128.000,26.000,.000,.000,.000,.000,   1,/* [                                ] */
31,'1 ',1,  31,  31,108.000,22.000,.000,.000,.000,.000,   1,/* [                                ] */
32,'1 ',1,  31,  32,97.000,20.000,.000,.000,.000,.000,   1,/* [                                ] */
33,'1 ',1,  31,  31,180.000,37.000,.000,.000,.000,.000,   1,/* [                                ] */
34,'1 ',1,  31,  31,74.000,15.000,.000,.000,.000,.000,   1,/* [                                ] */
35,'1 ',1,  31,  31,71.000,14.000,.000,.000,.000,.000,   1,/* [                                ] */
36,'1 ',1,  31,  32,136.000,28.000,.000,.000,.000,.000,   1,/* [                                ] */
37,'1 ',1,  31,  32,125.000,25.000,.000,.000,.000,.000,   1,/* [                                ] */
38,'1 ',1,  31,  32,171.000,35.000,.000,.000,.000,.000,   1,/* [                                ] */
39,'1 ',1,  31,  33,175.000,36.000,.000,.000,.000,.000,   1,/* [                                ] */
30,'1 ',1,  31,  33,195.000,40.000,.000,.000,.000,.000,   1,/* [                                ] */
33,'1 ',1,  32,  34,265.000,54.000,.000,.000,.000,.000,   1,/* [                                ] */
34,'1 ',1,  32,  36,194.000,39.000,.000,.000,.000,.000,   1,/* [                                ] */
35,'1 ',1,  32,  36,317.000,64.000,.000,.000,.000,.000,   1,/* [                                ] */
36,'1 ',1,  32,  36,100.000,20.000,.000,.000,.000,.000,   1,/* [                                ] */
38,'1 ',1,  32,  37,333.000,68.000,.000,.000,.000,.000,   1,/* [                                ] */
39,'1 ',1,  32,  35,181.000,37.000,.000,.000,.000,.000,   1,/* [                                ] */
30,'1 ',1,  32,  35,128.000,26.000,.000,.000,.000,.000,   1,/* [                                ] */
0 / END OF LOAD DATA, BEGIN GENERATOR DATA
   10,'1 ',172.00,28.20,28.20,28.20,1.00000,     0,100.00,.00000,1.00000,.00000,.00000,1.00000,1,100.0,1000.00,.00,   1,1.0000,,,,,,,,/* [                                ] */
   10,'1 ',172.00,14.00,14.00,14.00,1.00000,     0,100.00,.00000,1.00000,.00000,.00000,1.00000,1,100.0,1000.00,.00,   1,1.0000,,,,,,,,/* [                                ] */
   10,'1 ',240.00,51.60,51.60,51.60,1.00000,     0,100.00,.00000,1.00000,.00000,.00000,1.00000,1,100.0,1000.00,.00,   1,1.0000,,,,,,,,/* [                                ] */
   11,'1 ',285.30,122.00,122.00,122.00,1.00000,     0,100.00,.00000,1.00000,.00000,.00000,1.00000,1,100.0,10000.00,.00,   1,1.0000,,,,,,,,/* [                                ] */
   11,'1 ',.00,13.70,13.70,13.70,1.00000,     0,100.00,.00000,1.00000,.00000,.00000,1.00000,1,100.0,1000.00,.00,   1,1.0000,,,,,,,,/* [                                ] */
   11,'1 ',215.00,.00,.00,.00,1.00000,     0,100.00,.00000,1.00000,.00000,.00000,1.00000,1,100.0,1000.00,.00,   1,1.0000,,,,,,,,/* [                                ] */
   11,'1 ',155.00,25.22,25.22,25.22,1.00000,     0,100.00,.00000,1.00000,.00000,.00000,1.00000,1,100.0,1000.00,.00,   1,1.0000,,,,,,,,/* [                                ] */
   11,'1 ',400.00,25.22,25.22,25.22,1.00000,     0,100.00,.00000,1.00000,.00000,.00000,1.00000,1,100.0,1000.00,.00,   1,1.0000,,,,,,,,/* [                                ] */
   12,'1 ',400.00,108.20,108.20,108.20,1.00000,     0,100.00,.00000,1.00000,.00000,.00000,1.00000,1,100.0,1000.00,.00,   1,1.0000,,,,,,,,/* [                                ] */
   12,'1 ',300.00,-24.80,-24.80,-24.80,1.00000,     0,100.00,.00000,1.00000,.00000,.00000,1.00000,1,100.0,1000.00,.00,   1,1.0000,,,,,,,,/* [                                ] */
   12,'1 ',650.40,-500.12,9900.00,-9900.00,1.00000,     0,100.00,.00000,1.00000,.00000,.00000,1.00000,1,100.0,1000.00,.00,   1,1.0000,,,,,,,,/* [                                ] */
   20,'1 ',172.00,28.20,28.20,28.20,1.00000,     0,100.00,.00000,1.00000,.00000,.00000,1.00000,1,100.0,1000.00,.00,   1,1.0000,,,,,,,,/* [                                ] */
   20,'1 ',172.00,14.00,14.00,14.00,1.00000,     0,100.00,.00000,1.00000,.00000,.00000,1.00000,1,100.0,1000.00,.00,   1,1.0000,,,,,,,,/* [                                ] */
   20,'1 ',240.00,51.60,51.60,51.60,1.00000,     0,100.00,.00000,1.00000,.00000,.00000,1.00000,1,100.0,1000.00,.00,   1,1.0000,,,,,,,,/* [                                ] */
   21,'1 ',285.30,122.10,122.10,122.10,1.00000,     0,100.00,.00000,1.00000,.00000,.00000,1.00000,1,100.0,1000.00,.00,   1,1.0000,,,,,,,,/* [                                ] */
   21,'1 ',.00,13.68,13.68,13.68,1.00000,     0,100.00,.00000,1.00000,.00000,.00000,1.00000,1,100.0,1000.00,.00,   1,1.0000,,,,,,,,/* [                                ] */
   21,'1 ',215.00,.05,.05,.05,1.00000,     0,100.00,.00000,1.00000,.00000,.00000,1.00000,1,100.0,1000.00,.00,   1,1.0000,,,,,,,,/* [                                ] */
   26,'1 ',155.00,25.22,25.22,25.22,1.00000,     0,100.00,.00000,1.00000,.00000,.00000,1.00000,1,100.0,1000.00,.00,   1,1.0000,,,,,,,,/* [                                ] */
   21,'1 ',400.00,137.40,137.40,137.40,1.00000,     0,100.00,.00000,1.00000,.00000,.00000,1.00000,1,100.0,1000.00,.00,   1,1.0000,,,,,,,,/* [                                ] */
   22,'1 ',400.00,108.20,108.20,108.20,1.00000,     0,100.00,.00000,1.00000,.00000,.00000,1.00000,1,100.0,1000.00,.00,   1,1.0000,,,,,,,,/* [                                ] */
   22,'1 ',300.00,-29.76,-29.76,-29.76,1.00000,     0,100.00,.00000,1.00000,.00000,.00000,1.00000,1,100.0,1000.00,.00,   1,1.0000,,,,,,,,/* [                                ] */
   22,'1 ',610.00,135.36,135.36,135.36,1.00000,     0,100.00,.00000,1.00000,.00000,.00000,1.00000,1,100.0,1000.00,.00,   1,1.0000,,,,,,,,/* [                                ] */
   31,'1 ',172.00,28.20,28.20,28.20,1.00000,     0,100.00,.00000,1.00000,.00000,.00000,1.00000,1,100.0,1000.00,.00,   1,1.0000,,,,,,,,/* [                                ] */
   30,'1 ',172.00,14.00,14.00,14.00,1.00000,     0,100.00,.00000,1.00000,.00000,.00000,1.00000,1,100.0,1000.00,.00,   1,1.0000,,,,,,,,/* [                                ] */
   37,'1 ',240.00,51.60,51.60,51.60,1.00000,     0,100.00,.00000,1.00000,.00000,.00000,1.00000,1,100.0,1000.00,.00,   1,1.0000,,,,,,,,/* [                                ] */
   31,'1 ',285.30,122.10,122.10,122.10,1.00000,     0,100.00,.00000,1.00000,.00000,.00000,1.00000,1,100.0,1000.00,.00,   1,1.0000,,,,,,,,/* [                                ] */
   31,'1 ',.00,13.68,13.68,13.68,1.00000,     0,100.00,.00000,1.00000,.00000,.00000,1.00000,1,100.0,1000.00,.00,   1,1.0000,,,,,,,,/* [                                ] */
   31,'1 ',215.00,.00,.00,.00,1.00000,     0,100.00,.00000,1.00000,.00000,.00000,1.00000,1,100.0,1000.00,.00,   1,1.0000,,,,,,,,/* [                                ] */
   36,'1 ',155.00,25.22,25.22,25.22,1.00000,     0,100.00,.00000,1.00000,.00000,.00000,1.00000,1,100.0,1000.00,.00,   1,1.0000,,,,,,,,/* [                                ] */
   31,'1 ',400.00,137.40,137.40,137.40,1.00000,     0,100.00,.00000,1.00000,.00000,.00000,1.00000,1,100.0,1000.00,.00,   1,1.0000,,,,,,,,/* [                                ] */
   32,'1 ',400.00,108.20,108.20,108.20,1.00000,     0,100.00,.00000,1.00000,.00000,.00000,1.00000,1,100.0,1000.00,.00,   1,1.0000,,,,,,,,/* [                                ] */
   32,'1 ',300.00,-29.76,-29.76,-29.76,1.00000,     0,100.00,.00000,1.00000,.00000,.00000,1.00000,1,100.0,1000.00,.00,   1,1.0000,,,,,,,,/* [                                ] */
   32,'1 ',520.00,135.36,135.36,135.36,1.00000,     0,100.00,.00000,1.00000,.00000,.00000,1.00000,1,100.0,1000.00,.00,   1,1.0000,,,,,,,,/* [                                ] */
0 / END OF GENERATOR DATA, BEGIN BRANCH DATA
       1,       2,'1 ',    0.70000E-03,    0.014,    0.65000E-03,175.00,.00,.00,.00000,.00000,.00000,.00000,1,.00,   1,1.0000,,,,,,,,/* [                                ] */
       1,       3,'1 ',    0.54190E-01,    0.211002    ,    0.61300E-01,175.00,.00,.00,.00000,.00000,.00000,.00000,1,.00,   1,1.0000,,,,,,,,/* [                                ] */
       1,       5,'1 ',    0.22430E-01,    0.085,    0.24400E-01,175.00,.00,.00,.00000,.00000,.00000,.00000,1,.00,   1,1.0000,,,,,,,,/* [                                ] */
       2,       4,'1 ',    0.33610E-01,    0.127    ,    0.36600E-01,175.00,.00,.00,.00000,.00000,.00000,.00000,1,.00,   1,1.0000,,,,,,,,/* [                                ] */
       2,       6,'1 ',    0.50640E-01,    0.192001    ,    0.55700E-01,175.00,.00,.00,.00000,.00000,.00000,.00000,1,.00,   1,1.0000,,,,,,,,/* [                                ] */
       3,       9,'1 ',    0.31480E-01,    0.1190    ,    0.34300E-01,175.00,.00,.00,.00000,.00000,.00000,.00000,1,.00,   1,1.0000,,,,,,,,/* [                                ] */
       3,       24,'1 ',    0.31480E-01,    0.084    ,    0.34300E-01,175.00,.00,.00,.00000,.00000,.00000,.00000,1,.00,   1,1.0000,,,,,,,,/* [                                ] */
       4,       9,'1 ',    0.26920E-01,    0.104    ,    0.27900E-01,175.00,.00,.00,.00000,.00000,.00000,.00000,1,.00,   1,1.0000,,,,,,,,/* [                                ] */
       5,       10,'1 ',    0.26920E-01,    0.088    ,    0.27900E-01,175.00,.00,.00,.00000,.00000,.00000,.00000,1,.00,   1,1.0000,,,,,,,,/* [                                ] */
      6,       10,'1 ',    0.22620E-01,    0.061,    0.13029    ,175.00,.00,.00,.00000,.00000,.00000,.00000,1,.00,   1,1.0000,,,,,,,,/* [                                ] */
       7,       8,'1 ',    0.16140E-01,    0.061,    0.17900E-01,175.00,.00,.00,.00000,.00000,.00000,.00000,1,.00,   1,1.0000,,,,,,,,/* [                                ] */
       7,       27,'1 ',    0.16140E-01,    0.161,    0.17900E-01,175.00,.00,.00,.00000,.00000,.00000,.00000,1,.00,   1,1.0000,,,,,,,,/* [                                ] */
       8,       9,'1 ',    0.42340E-01,    0.165    ,    0.47800E-01,175.00,.00,.00,.00000,.00000,.00000,.00000,1,.00,   1,1.0000,,,,,,,,/* [                                ] */
       8,      10,'1 ',    0.42340E-01,    0.165    ,    0.47800E-01,175.00,.00,.00,.00000,.00000,.00000,.00000,1,.00,   1,1.0000,,,,,,,,/* [                                ] */
       9,      11,'1 ',    0.42340E-01,    0.084    ,    0.47800E-01,175.00,.00,.00,.00000,.00000,.00000,.00000,1,.00,   1,1.0000,,,,,,,,/* [                                ] */
       9,      12,'1 ',    0.42340E-01,    0.084    ,    0.47800E-01,175.00,.00,.00,.00000,.00000,.00000,.00000,1,.00,   1,1.0000,,,,,,,,/* [                                ] */
       10,      11,'1 ',    0.42340E-01,    0.084    ,    0.47800E-01,175.00,.00,.00,.00000,.00000,.00000,.00000,1,.00,   1,1.0000,,,,,,,,/* [                                ] */
       10,      12,'1 ',    0.42340E-01,    0.084    ,    0.47800E-01,175.00,.00,.00,.00000,.00000,.00000,.00000,1,.00,   1,1.0000,,,,,,,,/* [                                ] */
      11,      14,'1 ',    0.51300E-02,    0.042,    0.84300E-01,500.00,.00,.00,.00000,.00000,.00000,.00000,1,.00,   1,1.0000,,,,,,,,/* [                                ] */
      12,      13,'1 ',    0.58300E-02,    0.048,    0.95900E-01,500.00,.00,.00,.00000,.00000,.00000,.00000,1,.00,   1,1.0000,,,,,,,,/* [                                ] */
      12,      23,'1 ',    0.12240E-01,    0.097,    0.19840    ,500.00,.00,.00,.00000,.00000,.00000,.00000,1,.00,   1,1.0000,,,,,,,,/* [                                ] */
      13,      23,'1 ',    0.10600E-01,    0.087,    0.17520    ,500.00,.00,.00,.00000,.00000,.00000,.00000,1,.00,   1,1.0000,,,,,,,,/* [                                ] */
      13,      39,'1 ',    0.10600E-01,    0.075,    0.17520    ,500.00,.00,.00,.00000,.00000,.00000,.00000,1,.00,   1,1.0000,,,,,,,,/* [                                ] */
      14,      16,'1 ',    0.47700E-02,    0.059,    0.78500E-01,500.00,.00,.00,.00000,.00000,.00000,.00000,1,.00,   1,1.0000,,,,,,,,/* [                                ] */
      15,      16,'1 ',    0.21200E-02,    0.017    ,    0.34900E-01,500.00,.00,.00,.00000,.00000,.00000,.00000,1,.00,   1,1.0000,,,,,,,,/* [                                ] */
      15,      21,'1 ',    0.60700E-02,    0.049,    0.10060    ,500.00,.00,.00,.00000,.00000,.00000,.00000,1,.00,   1,1.0000,,,,,,,,/* [                                ] */
      15,      21,'2 ',    0.60700E-02,    0.049,    0.10060    ,500.00,.00,.00,.00000,.00000,.00000,.00000,1,.00,   1,1.0000,,,,,,,,/* [                                ] */
      15,      24,'1 ',    0.64200E-02,    0.052,    0.10660    ,500.00,.00,.00,.00000,.00000,.00000,.00000,1,.00,   1,1.0000,,,,,,,,/* [                                ] */
      16,      17,'1 ',    0.31800E-02,    0.026,    0.52300E-01,500.00,.00,.00,.00000,.00000,.00000,.00000,1,.00,   1,1.0000,,,,,,,,/* [                                ] */
      16,      19,'1 ',    0.28300E-02,    0.023,    0.46500E-01,500.00,.00,.00,.00000,.00000,.00000,.00000,1,.00,   1,1.0000,,,,,,,,/* [                                ] */
      17,      18,'1 ',    0.17700E-02,    0.014,    0.29100E-01,500.00,.00,.00,.00000,.00000,.00000,.00000,1,.00,   1,1.0000,,,,,,,,/* [                                ] */
      17,      22,'1 ',    0.12250E-01,    0.105    ,    0.21160    ,500.00,.00,.00,.00000,.00000,.00000,.00000,1,.00,   1,1.0000,,,,,,,,/* [                                ] */
      18,      21,'1 ',    0.33100E-02,    0.026,    0.53300E-01,500.00,.00,.00,.00000,.00000,.00000,.00000,1,.00,   1,1.0000,,,,,,,,/* [                                ] */
      18,      21,'2 ',    0.33100E-02,    0.026,    0.53300E-01,500.00,.00,.00,.00000,.00000,.00000,.00000,1,.00,   1,1.0000,,,,,,,,/* [                                ] */
      19,      20,'1 ',    0.50500E-02,    0.04,    0.81400E-01,500.00,.00,.00,.00000,.00000,.00000,.00000,1,.00,   1,1.0000,,,,,,,,/* [                                ] */
      19,      20,'2 ',    0.50500E-02,    0.04,    0.81400E-01,500.00,.00,.00,.00000,.00000,.00000,.00000,1,.00,   1,1.0000,,,,,,,,/* [                                ] */
      20,      23,'1 ',    0.27600E-02,    0.022,    0.44400E-01,500.00,.00,.00,.00000,.00000,.00000,.00000,1,.00,   1,1.0000,,,,,,,,/* [                                ] */
      20,      23,'2 ',    0.27600E-02,    0.022,    0.44400E-01,500.00,.00,.00,.00000,.00000,.00000,.00000,1,.00,   1,1.0000,,,,,,,,/* [                                ] */
      21,      22,'1 ',    0.82900E-02,    0.068,    0.13670    ,500.00,.00,.00,.00000,.00000,.00000,.00000,1,.00,   1,1.0000,,,,,,,,/* [                                ] */
      23,      41,'1 ',    0.82900E-02,    0.074,    0.13670    ,500.00,.00,.00,.00000,.00000,.00000,.00000,1,.00,   1,1.0000,,,,,,,,/* [                                ] */
       25,       26,'1 ',    0.70000E-03,    0.014,    0.65000E-03,175.00,.00,.00,.00000,.00000,.00000,.00000,1,.00,   1,1.0000,,,,,,,,/* [                                ] */
       25,       27,'1 ',    0.54190E-01,    0.211002    ,    0.61300E-01,175.00,.00,.00,.00000,.00000,.00000,.00000,1,.00,   1,1.0000,,,,,,,,/* [                                ] */
       25,       29,'1 ',    0.22430E-01,    0.085,    0.24400E-01,175.00,.00,.00,.00000,.00000,.00000,.00000,1,.00,   1,1.0000,,,,,,,,/* [                                ] */
       26,       28,'1 ',    0.33610E-01,    0.127    ,    0.36600E-01,175.00,.00,.00,.00000,.00000,.00000,.00000,1,.00,   1,1.0000,,,,,,,,/* [                                ] */
       26,       30,'1 ',    0.33610E-01,    0.192001    ,    0.36600E-01,175.00,.00,.00,.00000,.00000,.00000,.00000,1,.00,   1,1.0000,,,,,,,,/* [                                ] */
       27,       33,'1 ',    0.50640E-01,    0.118999    ,    0.55700E-01,175.00,.00,.00,.00000,.00000,.00000,.00000,1,.00,   1,1.0000,,,,,,,,/* [                                ] */
       27,       48,'1 ',    0.31480E-01,    0.084    ,    0.34300E-01,175.00,.00,.00,.00000,.00000,.00000,.00000,1,.00,   1,1.0000,,,,,,,,/* [                                ] */
       28,       33,'1 ',    0.26920E-01,    0.104    ,    0.27900E-01,175.00,.00,.00,.00000,.00000,.00000,.00000,1,.00,   1,1.0000,,,,,,,,/* [                                ] */
       29,       34,'1 ',    0.26920E-01,    0.088    ,    0.27900E-01,175.00,.00,.00,.00000,.00000,.00000,.00000,1,.00,   1,1.0000,,,,,,,,/* [                                ] */
      30,       34,'1 ',    0.22620E-01,    0.061,    0.13029    ,175.00,.00,.00,.00000,.00000,.00000,.00000,1,.00,   1,1.0000,,,,,,,,/* [                                ] */
       31,       32,'1 ',    0.16140E-01,    0.061,    0.17900E-01,175.00,.00,.00,.00000,.00000,.00000,.00000,1,.00,   1,1.0000,,,,,,,,/* [                                ] */
       32,       33,'1 ',    0.42340E-01,    0.165    ,    0.47800E-01,175.00,.00,.00,.00000,.00000,.00000,.00000,1,.00,   1,1.0000,,,,,,,,/* [                                ] */
       32,      34,'1 ',    0.42340E-01,    0.165    ,    0.47800E-01,175.00,.00,.00,.00000,.00000,.00000,.00000,1,.00,   1,1.0000,,,,,,,,/* [                                ] */
       33,      35,'1 ',    0.42340E-01,    0.084    ,    0.47800E-01,175.00,.00,.00,.00000,.00000,.00000,.00000,1,.00,   1,1.0000,,,,,,,,/* [                                ] */
       33,      36,'1 ',    0.42340E-01,    0.084    ,    0.47800E-01,175.00,.00,.00,.00000,.00000,.00000,.00000,1,.00,   1,1.0000,,,,,,,,/* [                                ] */
       34,      35,'1 ',    0.42340E-01,    0.084    ,    0.47800E-01,175.00,.00,.00,.00000,.00000,.00000,.00000,1,.00,   1,1.0000,,,,,,,,/* [                                ] */
       34,      36,'1 ',    0.42340E-01,    0.084    ,    0.47800E-01,175.00,.00,.00,.00000,.00000,.00000,.00000,1,.00,   1,1.0000,,,,,,,,/* [                                ] */
      35,      38,'1 ',    0.58300E-02,    0.042,    0.95900E-01,500.00,.00,.00,.00000,.00000,.00000,.00000,1,.00,   1,1.0000,,,,,,,,/* [                                ] */
      36,      37,'1 ',    0.51300E-02,    0.048,    0.84300E-01,500.00,.00,.00,.00000,.00000,.00000,.00000,1,.00,   1,1.0000,,,,,,,,/* [                                ] */
      36,      47,'1 ',    0.12240E-01,    0.097,    0.19840    ,500.00,.00,.00,.00000,.00000,.00000,.00000,1,.00,   1,1.0000,,,,,,,,/* [                                ] */
      37,      47,'1 ',    0.10600E-01,    0.087,    0.17520    ,500.00,.00,.00,.00000,.00000,.00000,.00000,1,.00,   1,1.0000,,,,,,,,/* [                                ] */
      38,      40,'1 ',    0.47700E-02,    0.059,    0.78500E-01,500.00,.00,.00,.00000,.00000,.00000,.00000,1,.00,   1,1.0000,,,,,,,,/* [                                ] */
      39,      40,'1 ',    0.21200E-02,    0.017    ,    0.34900E-01,500.00,.00,.00,.00000,.00000,.00000,.00000,1,.00,   1,1.0000,,,,,,,,/* [                                ] */
      39,      45,'1 ',    0.60700E-02,    0.049,    0.10060    ,500.00,.00,.00,.00000,.00000,.00000,.00000,1,.00,   1,1.0000,,,,,,,,/* [                                ] */
      39,      45,'2 ',    0.60700E-02,    0.049,    0.10060    ,500.00,.00,.00,.00000,.00000,.00000,.00000,1,.00,   1,1.0000,,,,,,,,/* [                                ] */
      39,      48,'1 ',    0.64200E-02,    0.052,    0.10660    ,500.00,.00,.00,.00000,.00000,.00000,.00000,1,.00,   1,1.0000,,,,,,,,/* [                                ] */
      40,      41,'1 ',    0.31800E-02,    0.026,    0.52300E-01,500.00,.00,.00,.00000,.00000,.00000,.00000,1,.00,   1,1.0000,,,,,,,,/* [                                ] */
      40,      43,'1 ',    0.28300E-02,    0.023,    0.46500E-01,500.00,.00,.00,.00000,.00000,.00000,.00000,1,.00,   1,1.0000,,,,,,,,/* [                                ] */
      41,      42,'1 ',    0.17700E-02,    0.014,    0.29100E-01,500.00,.00,.00,.00000,.00000,.00000,.00000,1,.00,   1,1.0000,,,,,,,,/* [                                ] */
      41,      46,'1 ',    0.12250E-01,    0.105    ,    0.21160    ,500.00,.00,.00,.00000,.00000,.00000,.00000,1,.00,   1,1.0000,,,,,,,,/* [                                ] */
      42,      45,'1 ',    0.33100E-02,    0.026,    0.53300E-01,500.00,.00,.00,.00000,.00000,.00000,.00000,1,.00,   1,1.0000,,,,,,,,/* [                                ] */
      42,      45,'2 ',    0.33100E-02,    0.026,    0.53300E-01,500.00,.00,.00,.00000,.00000,.00000,.00000,1,.00,   1,1.0000,,,,,,,,/* [                                ] */
      43,      44,'1 ',    0.50500E-02,    0.04,    0.81400E-01,500.00,.00,.00,.00000,.00000,.00000,.00000,1,.00,   1,1.0000,,,,,,,,/* [                                ] */
      43,      44,'2 ',    0.50500E-02,    0.04,    0.81400E-01,500.00,.00,.00,.00000,.00000,.00000,.00000,1,.00,   1,1.0000,,,,,,,,/* [                                ] */
      44,      47,'1 ',    0.27600E-02,    0.022,    0.44400E-01,500.00,.00,.00,.00000,.00000,.00000,.00000,1,.00,   1,1.0000,,,,,,,,/* [                                ] */
      44,      47,'2 ',    0.27600E-02,    0.022,    0.44400E-01,500.00,.00,.00,.00000,.00000,.00000,.00000,1,.00,   1,1.0000,,,,,,,,/* [                                ] */
      45,      46,'1 ',    0.82900E-02,    0.068,    0.13670    ,500.00,.00,.00,.00000,.00000,.00000,.00000,1,.00,   1,1.0000,,,,,,,,/* [                                ] */
       49,       50,'1 ',    0.70000E-03,    0.014,    0.65000E-03,175.00,.00,.00,.00000,.00000,.00000,.00000,1,.00,   1,1.0000,,,,,,,,/* [                                ] */
       49,       51,'1 ',    0.54190E-01,    0.211002    ,    0.61300E-01,175.00,.00,.00,.00000,.00000,.00000,.00000,1,.00,   1,1.0000,,,,,,,,/* [                                ] */
       49,       53,'1 ',    0.22430E-01,    0.085,    0.24400E-01,175.00,.00,.00,.00000,.00000,.00000,.00000,1,.00,   1,1.0000,,,,,,,,/* [                                ] */
       50,       52,'1 ',    0.33610E-01,    0.127    ,    0.36600E-01,175.00,.00,.00,.00000,.00000,.00000,.00000,1,.00,   1,1.0000,,,,,,,,/* [                                ] */
       50,       54,'1 ',    0.50640E-01,    0.192001    ,    0.55700E-01,175.00,.00,.00,.00000,.00000,.00000,.00000,1,.00,   1,1.0000,,,,,,,,/* [                                ] */
       51,       57,'1 ',    0.31480E-01,    0.1190    ,    0.34300E-01,175.00,.00,.00,.00000,.00000,.00000,.00000,1,.00,   1,1.0000,,,,,,,,/* [                                ] */
       51,       72,'1 ',    0.31480E-01,    0.084    ,    0.34300E-01,175.00,.00,.00,.00000,.00000,.00000,.00000,1,.00,   1,1.0000,,,,,,,,/* [                                ] */
       52,       57,'1 ',    0.26920E-01,    0.104    ,    0.27900E-01,175.00,.00,.00,.00000,.00000,.00000,.00000,1,.00,   1,1.0000,,,,,,,,/* [                                ] */
       53,       58,'1 ',    0.26920E-01,    0.088    ,    0.27900E-01,175.00,.00,.00,.00000,.00000,.00000,.00000,1,.00,   1,1.0000,,,,,,,,/* [                                ] */
      54,       58,'1 ',    0.22620E-01,    0.061,    0.13029    ,175.00,.00,.00,.00000,.00000,.00000,.00000,1,.00,   1,1.0000,,,,,,,,/* [                                ] */
       55,       56,'1 ',    0.16140E-01,    0.061,    0.17900E-01,175.00,.00,.00,.00000,.00000,.00000,.00000,1,.00,   1,1.0000,,,,,,,,/* [                                ] */
       56,       57,'1 ',    0.42340E-01,    0.165    ,    0.47800E-01,175.00,.00,.00,.00000,.00000,.00000,.00000,1,.00,   1,1.0000,,,,,,,,/* [                                ] */
       56,      58,'1 ',    0.42340E-01,    0.165    ,    0.47800E-01,175.00,.00,.00,.00000,.00000,.00000,.00000,1,.00,   1,1.0000,,,,,,,,/* [                                ] */
       57,      59,'1 ',    0.42340E-01,    0.084    ,    0.47800E-01,175.00,.00,.00,.00000,.00000,.00000,.00000,1,.00,   1,1.0000,,,,,,,,/* [                                ] */
       57,      60,'1 ',    0.42340E-01,    0.084    ,    0.47800E-01,175.00,.00,.00,.00000,.00000,.00000,.00000,1,.00,   1,1.0000,,,,,,,,/* [                                ] */
       58,      59,'1 ',    0.42340E-01,    0.084    ,    0.47800E-01,175.00,.00,.00,.00000,.00000,.00000,.00000,1,.00,   1,1.0000,,,,,,,,/* [                                ] */
       58,      60,'1 ',    0.42340E-01,    0.084    ,    0.47800E-01,175.00,.00,.00,.00000,.00000,.00000,.00000,1,.00,   1,1.0000,,,,,,,,/* [                                ] */
      59,      62,'1 ',    0.58300E-02,    0.042,    0.95900E-01,500.00,.00,.00,.00000,.00000,.00000,.00000,1,.00,   1,1.0000,,,,,,,,/* [                                ] */
      60,      61,'1 ',    0.51300E-02,    0.048,    0.84300E-01,500.00,.00,.00,.00000,.00000,.00000,.00000,1,.00,   1,1.0000,,,,,,,,/* [                                ] */
      60,      71,'1 ',    0.58300E-02,    0.097,    0.95900E-01,500.00,.00,.00,.00000,.00000,.00000,.00000,1,.00,   1,1.0000,,,,,,,,/* [                                ] */
      61,      71,'1 ',    0.10600E-01,    0.087,    0.17520    ,500.00,.00,.00,.00000,.00000,.00000,.00000,1,.00,   1,1.0000,,,,,,,,/* [                                ] */
      62,      64,'1 ',    0.47700E-02,    0.059,    0.78500E-01,500.00,.00,.00,.00000,.00000,.00000,.00000,1,.00,   1,1.0000,,,,,,,,/* [                                ] */
      63,      64,'1 ',    0.21200E-02,    0.017    ,    0.34900E-01,500.00,.00,.00,.00000,.00000,.00000,.00000,1,.00,   1,1.0000,,,,,,,,/* [                                ] */
      63,      69,'1 ',    0.60700E-02,    0.049,    0.10060    ,500.00,.00,.00,.00000,.00000,.00000,.00000,1,.00,   1,1.0000,,,,,,,,/* [                                ] */
      63,      69,'2 ',    0.60700E-02,    0.049,    0.10060    ,500.00,.00,.00,.00000,.00000,.00000,.00000,1,.00,   1,1.0000,,,,,,,,/* [                                ] */
      63,      72,'1 ',    0.64200E-02,    0.052,    0.10660    ,500.00,.00,.00,.00000,.00000,.00000,.00000,1,.00,   1,1.0000,,,,,,,,/* [                                ] */
      64,      65,'1 ',    0.31800E-02,    0.026,    0.52300E-01,500.00,.00,.00,.00000,.00000,.00000,.00000,1,.00,   1,1.0000,,,,,,,,/* [                                ] */
      64,      67,'1 ',    0.28300E-02,    0.023,    0.46500E-01,500.00,.00,.00,.00000,.00000,.00000,.00000,1,.00,   1,1.0000,,,,,,,,/* [                                ] */
      65,      66,'1 ',    0.17700E-02,    0.014,    0.29100E-01,500.00,.00,.00,.00000,.00000,.00000,.00000,1,.00,   1,1.0000,,,,,,,,/* [                                ] */
      65,      70,'1 ',    0.12250E-01,    0.105    ,    0.21160    ,500.00,.00,.00,.00000,.00000,.00000,.00000,1,.00,   1,1.0000,,,,,,,,/* [                                ] */
      66,      69,'1 ',    0.33100E-02,    0.026,    0.53300E-01,500.00,.00,.00,.00000,.00000,.00000,.00000,1,.00,   1,1.0000,,,,,,,,/* [                                ] */
      66,      69,'2 ',    0.33100E-02,    0.026,    0.53300E-01,500.00,.00,.00,.00000,.00000,.00000,.00000,1,.00,   1,1.0000,,,,,,,,/* [                                ] */
      67,      68,'1 ',    0.50500E-02,    0.04,    0.81400E-01,500.00,.00,.00,.00000,.00000,.00000,.00000,1,.00,   1,1.0000,,,,,,,,/* [                                ] */
      67,      68,'2 ',    0.50500E-02,    0.04,    0.81400E-01,500.00,.00,.00,.00000,.00000,.00000,.00000,1,.00,   1,1.0000,,,,,,,,/* [                                ] */
      68,      71,'1 ',    0.27600E-02,    0.022,    0.44400E-01,500.00,.00,.00,.00000,.00000,.00000,.00000,1,.00,   1,1.0000,,,,,,,,/* [                                ] */
      68,      71,'2 ',    0.27600E-02,    0.022,    0.44400E-01,500.00,.00,.00,.00000,.00000,.00000,.00000,1,.00,   1,1.0000,,,,,,,,/* [                                ] */
      69,      70,'1 ',    0.82900E-02,    0.068,    0.13670    ,500.00,.00,.00,.00000,.00000,.00000,.00000,1,.00,   1,1.0000,,,,,,,,/* [                                ] */
      73,      21,'1 ',    0.82900E-02,    0.097,    0.13670    ,500.00,.00,.00,.00000,.00000,.00000,.00000,1,.00,   1,1.0000,,,,,,,,/* [                                ] */
      66,      47,'1 ',    0.82900E-02,    0.104,    0.13670    ,500.00,.00,.00,.00000,.00000,.00000,.00000,1,.00,   1,1.0000,,,,,,,,/* [                                ] */
      71,      73,'1 ',    0.82900E-02,    0.009,    0.13670    ,500.00,.00,.00,.00000,.00000,.00000,.00000,1,.00,   1,1.0000,,,,,,,,/* [                                ] */
0 / END OF BRANCH DATA, BEGIN TRANSFORMER DATA
0 / END OF TRANSFORMER DATA, BEGIN AREA DATA
   11,     0,     0.00,     1.00,'11          '
   12,     0,     0.00,     1.00,'12          '
   21,     0,     0.00,     1.00,'21          '
   22,     0,     0.00,     1.00,'22          '
   31,     0,     0.00,     1.00,'31          '
   32,     0,     0.00,     1.00,'32          '
0 / END OF AREA DATA, BEGIN TWO-TERMINAL DC DATA
0 / END OF TWO-TERMINAL DC DATA, BEGIN VSC DC LINE DATA
0 / END OF VSC DC LINE DATA, BEGIN SWITCHED SHUNT DATA
0 / END OF SWITCHED SHUNT DATA, BEGIN IMPEDANCE CORRECTION TABLE DATA
0 / END OF IMPEDANCE CORRECTION TABLE DATA, BEGIN MULTI-TERMINAL DC DATA
0 / END OF MULTI-TERMINAL DC DATA, BEGIN MULTI-SECTION LINE DATA
0 / END OF MULTI-SECTION LINE DATA, BEGIN ZONE DATA
   11,'11          '
   12,'12          '
   13,'13          '
   14,'14          '
   16,'16          '
   17,'17          '
   15,'15          '
   21,'21          '
   22,'22          '
   23,'23          '
   24,'24          '
   26,'26          '
   27,'27          '
   25,'25          '
   31,'31          '
   32,'32          '
   33,'33          '
   34,'34          '
   36,'36          '
   37,'37          '
   35,'35          '
0 / END OF ZONE DATA, BEGIN INTER-AREA TRANSFER DATA
0 / END OF INTER-AREA TRANSFER DATA, BEGIN OWNER DATA
   1, '1           '
0 / END OF OWNER DATA, BEGIN FACTS DEVICE DATA
0 / END OF FACTS DATA
Q /End of data
